Materials Studio SDF calculation
TCVAMP81A 

 68  0  0  0  0  0              1 V2000
    0.9594    0.4114   -0.0330 C   0  0
   -0.2547    2.5705   -0.0461 C   0  0
    3.4332    0.4046   -0.0301 C   0  0
    2.2210    2.5409   -0.0431 C   0  0
    4.6684    2.5174   -0.0401 C   0  0
   -0.2664    1.1363   -0.0383 C   0  0
    2.2075    1.1202   -0.0354 C   0  0
    0.9943    3.2673   -0.0485 C   0  0
    4.6792    1.1163   -0.0325 C   0  0
    3.4710    3.2453   -0.0455 C   0  0
   -3.9793    0.4634   -0.0390 C   0  0
   -5.1781    2.5939   -0.0519 C   0  0
   -1.5056    0.4346   -0.0359 C   0  0
   -2.7346    2.5942   -0.0491 C   0  0
   -5.2126    1.1782   -0.0443 C   0  0
   -2.7378    1.1708   -0.0414 C   0  0
   -3.9825    3.2744   -0.0542 C   0  0
   -1.4738    3.3055   -0.0515 C   0  0
   -1.4082    4.7222   -0.0591 C   0  0
    1.0219    4.6927   -0.0562 C   0  0
    3.4585    4.6770   -0.0533 C   0  0
   -0.2043    5.3946   -0.0614 C   0  0
    2.2804    5.3720   -0.0584 C   0  0
    2.2806    6.4636   -0.0643 H   0  0
   -0.2910   -1.7158   -0.0229 C   0  0
    2.1894   -1.7361   -0.0199 C   0  0
   -1.5168   -0.9910   -0.0282 C   0  0
    0.9496   -1.0121   -0.0252 C   0  0
    3.4274   -1.0213   -0.0223 C   0  0
   -5.2432   -1.6533   -0.0289 C   0  0
   -2.7685   -1.6990   -0.0258 C   0  0
   -6.4584   -0.9095   -0.0344 C   0  0
   -3.9938   -0.9643   -0.0312 C   0  0
   -6.4439    0.4608   -0.0418 C   0  0
    0.9323   -3.8793   -0.0097 C   0  0
    3.4437   -3.8273   -0.0071 C   0  0
   -0.3012   -3.1519   -0.0151 C   0  0
    2.1959   -3.1580   -0.0121 C   0  0
    4.6403   -3.1381   -0.0094 C   0  0
   -4.0551   -3.7729   -0.0160 C   0  0
   -1.5453   -3.8601   -0.0127 C   0  0
   -5.2378   -3.0682   -0.0212 C   0  0
   -2.7952   -3.1186   -0.0181 C   0  0
    4.6664   -1.7274   -0.0171 C   0  0
   -0.3231   -5.9687    0.0002 C   0  0
    5.8945   -0.9948   -0.0196 C   0  0
    0.8886   -5.2846   -0.0021 C   0  0
    5.9021    0.3724   -0.0270 C   0  0
   -1.5233   -5.2676   -0.0050 C   0  0
    4.4152    5.2030   -0.0550 H   0  0
    3.4763   -4.9151   -0.0011 H   0  0
    5.6194    3.0555   -0.0420 H   0  0
    1.8109   -5.8624    0.0021 H   0  0
    5.5863   -3.6831   -0.0054 H   0  0
    6.8457    0.9214   -0.0289 H   0  0
    6.8326   -1.5531   -0.0155 H   0  0
   -0.3308   -7.0592    0.0061 H   0  0
   -2.4549   -5.8296   -0.0030 H   0  0
   -4.1012   -4.8601   -0.0102 H   0  0
   -0.1878    6.4861   -0.0673 H   0  0
   -2.3261    5.3068   -0.0634 H   0  0
   -4.0055    4.3623   -0.0602 H   0  0
   -6.1224    3.1419   -0.0560 H   0  0
   -6.1926   -3.5978   -0.0195 H   0  0
   -7.3778    1.0259   -0.0459 H   0  0
   -7.4045   -1.4544   -0.0325 H   0  0
    4.0276    5.0377    1.0537 H   0  0
    6.5183    0.6938    1.0292 H   0  0
M  END

> <TOTAL ENERGY>
BIOVIA, TYPE=DOUBLE, VERSION=1                                                  
 -1839.67239561

> <BINDING ENERGY>
BIOVIA, TYPE=DOUBLE, VERSION=1                                                  
   -15.63772709

> <HOMO ENERGY>
BIOVIA, TYPE=DOUBLE, VERSION=1                                                  
    -0.13261337

> <LUMO ENERGY>
BIOVIA, TYPE=DOUBLE, VERSION=1                                                  
    -0.12891001

> <LUMO-HOMO ENERGY>
BIOVIA, TYPE=DOUBLE, VERSION=1                                                  
     0.00370336

> <OPERATION STATUS>
BIOVIA, TYPE=STATUS, VERSION=1                                                  
SUCCESS

$$$$
