Materials Studio SDF calculation
TCVAMP81A 

 68  0  0  0  0  0              1 V2000
    0.9329    0.4996   -0.0330 C   0  0
   -0.2812    2.6587   -0.0461 C   0  0
    3.4067    0.4929   -0.0301 C   0  0
    2.1945    2.6291   -0.0431 C   0  0
    4.6419    2.6057   -0.0401 C   0  0
   -0.2929    1.2245   -0.0383 C   0  0
    2.1811    1.2084   -0.0354 C   0  0
    0.9679    3.3555   -0.0485 C   0  0
    4.6527    1.2045   -0.0325 C   0  0
    3.4446    3.3336   -0.0455 C   0  0
   -4.0058    0.5516   -0.0390 C   0  0
   -5.2046    2.6821   -0.0519 C   0  0
   -1.5321    0.5228   -0.0359 C   0  0
   -2.7611    2.6825   -0.0491 C   0  0
   -5.2391    1.2664   -0.0443 C   0  0
   -2.7643    1.2590   -0.0414 C   0  0
   -4.0090    3.3626   -0.0542 C   0  0
   -1.5003    3.3937   -0.0515 C   0  0
   -1.4347    4.8104   -0.0591 C   0  0
    0.9955    4.7809   -0.0562 C   0  0
    3.4320    4.7652   -0.0533 C   0  0
   -0.2308    5.4828   -0.0614 C   0  0
    2.2539    5.4603   -0.0584 C   0  0
    2.2541    6.5519   -0.0643 H   0  0
   -0.3175   -1.6276   -0.0229 C   0  0
    2.1630   -1.6478   -0.0199 C   0  0
   -1.5433   -0.9028   -0.0282 C   0  0
    0.9231   -0.9239   -0.0252 C   0  0
    3.4009   -0.9331   -0.0223 C   0  0
   -5.2697   -1.5651   -0.0289 C   0  0
   -2.7949   -1.6108   -0.0258 C   0  0
   -6.4849   -0.8213   -0.0344 C   0  0
   -4.0203   -0.8761   -0.0312 C   0  0
   -6.4703    0.5491   -0.0418 C   0  0
    0.9058   -3.7911   -0.0097 C   0  0
    3.4173   -3.7391   -0.0071 C   0  0
   -0.3276   -3.0637   -0.0151 C   0  0
    2.1695   -3.0698   -0.0121 C   0  0
    4.6138   -3.0498   -0.0094 C   0  0
   -4.0816   -3.6847   -0.0160 C   0  0
   -1.5718   -3.7719   -0.0127 C   0  0
   -5.2642   -2.9800   -0.0212 C   0  0
   -2.8217   -3.0304   -0.0181 C   0  0
    4.6399   -1.6391   -0.0171 C   0  0
   -0.3495   -5.8804    0.0002 C   0  0
    5.8680   -0.9065   -0.0196 C   0  0
    0.8621   -5.1964   -0.0021 C   0  0
    5.8756    0.4606   -0.0270 C   0  0
   -1.5498   -5.1793   -0.0050 C   0  0
    4.3887    5.2912   -0.0550 H   0  0
    3.4498   -4.8268   -0.0011 H   0  0
    5.5929    3.1437   -0.0420 H   0  0
    1.7845   -5.7742    0.0021 H   0  0
    5.5599   -3.5949   -0.0054 H   0  0
    6.8192    1.0096   -0.0289 H   0  0
    6.8062   -1.4649   -0.0155 H   0  0
   -0.3573   -6.9710    0.0061 H   0  0
   -2.4813   -5.7414   -0.0030 H   0  0
   -4.1276   -4.7719   -0.0102 H   0  0
   -0.2143    6.5743   -0.0673 H   0  0
   -2.3525    5.3950   -0.0634 H   0  0
   -4.0319    4.4505   -0.0602 H   0  0
   -6.1489    3.2301   -0.0560 H   0  0
   -6.2190   -3.5096   -0.0195 H   0  0
   -7.4043    1.1142   -0.0459 H   0  0
   -7.4310   -1.3661   -0.0325 H   0  0
    5.8011   -0.8740    1.0537 H   0  0
    6.4918    0.7821    1.0292 H   0  0
M  END

> <TOTAL ENERGY>
BIOVIA, TYPE=DOUBLE, VERSION=1                                                  
 -1839.74846055

> <BINDING ENERGY>
BIOVIA, TYPE=DOUBLE, VERSION=1                                                  
   -15.71379203

> <HOMO ENERGY>
BIOVIA, TYPE=DOUBLE, VERSION=1                                                  
    -0.17002276

> <LUMO ENERGY>
BIOVIA, TYPE=DOUBLE, VERSION=1                                                  
    -0.09937437

> <LUMO-HOMO ENERGY>
BIOVIA, TYPE=DOUBLE, VERSION=1                                                  
     0.07064839

> <OPERATION STATUS>
BIOVIA, TYPE=STATUS, VERSION=1                                                  
SUCCESS

$$$$
