Materials Studio SDF calculation
TCVAMP81A 

 68  0  0  0  0  0              1 V2000
    0.9762    0.4297    0.0031 C   0  0
   -0.2361    2.5917   -0.0200 C   0  0
    3.4402    0.4242    0.0153 C   0  0
    2.2306    2.5786    0.0015 C   0  0
    4.6656    2.5711    0.0050 C   0  0
   -0.2485    1.1560   -0.0069 C   0  0
    2.2306    1.1377    0.0071 C   0  0
    1.0215    3.2881   -0.0155 C   0  0
    4.7080    1.1365    0.0135 C   0  0
    3.4987    3.2780    0.0057 C   0  0
   -3.9624    0.4872   -0.0113 C   0  0
   -5.1535    2.6239   -0.0337 C   0  0
   -1.4903    0.4547   -0.0076 C   0  0
   -2.7071    2.6164   -0.0323 C   0  0
   -5.1934    1.2059   -0.0183 C   0  0
   -2.7183    1.1882   -0.0167 C   0  0
   -3.9591    3.3006   -0.0411 C   0  0
   -1.4551    3.3159   -0.0382 C   0  0
   -1.4046    4.7564   -0.0660 C   0  0
    1.0369    4.7527   -0.0374 C   0  0
    3.5404    4.7920    0.0213 C   0  0
   -0.2304    5.4377   -0.0684 C   0  0
    2.2086    5.4518   -0.0278 C   0  0
    2.1789    6.5436   -0.0453 H   0  0
   -0.2834   -1.6984    0.0054 C   0  0
    2.1977   -1.7216    0.0107 C   0  0
   -1.5054   -0.9737    0.0009 C   0  0
    0.9617   -0.9943    0.0068 C   0  0
    3.4416   -1.0114    0.0178 C   0  0
   -5.2353   -1.6246    0.0091 C   0  0
   -2.7598   -1.6774    0.0048 C   0  0
   -6.4464   -0.8772    0.0042 C   0  0
   -3.9827   -0.9400    0.0011 C   0  0
   -6.4255    0.4949   -0.0104 C   0  0
    0.9270   -3.8679    0.0090 C   0  0
    3.4295   -3.8174    0.0017 C   0  0
   -0.3007   -3.1357    0.0092 C   0  0
    2.1950   -3.1476    0.0069 C   0  0
    4.6327   -3.1210    0.0099 C   0  0
   -4.0549   -3.7480    0.0239 C   0  0
   -1.5470   -3.8410    0.0135 C   0  0
   -5.2348   -3.0402    0.0219 C   0  0
   -2.7925   -3.0975    0.0141 C   0  0
    4.6643   -1.7274    0.0223 C   0  0
   -0.3331   -5.9537    0.0176 C   0  0
    5.9931   -1.0190    0.0448 C   0  0
    0.8810   -5.2710    0.0137 C   0  0
    5.9011    0.4625    0.0226 C   0  0
   -1.5296   -5.2500    0.0174 C   0  0
    4.1629    5.1530   -0.8187 H   0  0
    3.4640   -4.9049   -0.0084 H   0  0
    5.6212    3.1031    0.0054 H   0  0
    1.8020   -5.8502    0.0154 H   0  0
    5.5747   -3.6745    0.0081 H   0  0
    6.8332    1.0322    0.0214 H   0  0
    6.6128   -1.3735   -0.8031 H   0  0
   -0.3430   -7.0443    0.0209 H   0  0
   -2.4633   -5.8084    0.0197 H   0  0
   -4.1039   -4.8351    0.0343 H   0  0
   -0.2235    6.5289   -0.0903 H   0  0
   -2.3331    5.3228   -0.0863 H   0  0
   -3.9819    4.3880   -0.0521 H   0  0
   -6.0966    3.1741   -0.0394 H   0  0
   -6.1915   -3.5664    0.0295 H   0  0
   -7.3573    1.0638   -0.0153 H   0  0
   -7.3949   -1.4178    0.0107 H   0  0
    4.0810    5.1337    0.9256 H   0  0
    6.5664   -1.3447    0.9373 H   0  0
M  END

> <TOTAL ENERGY>
BIOVIA, TYPE=DOUBLE, VERSION=1                                                  
 -1839.68182473

> <BINDING ENERGY>
BIOVIA, TYPE=DOUBLE, VERSION=1                                                  
   -15.64715621

> <HOMO ENERGY>
BIOVIA, TYPE=DOUBLE, VERSION=1                                                  
    -0.14531002

> <LUMO ENERGY>
BIOVIA, TYPE=DOUBLE, VERSION=1                                                  
    -0.11494947

> <LUMO-HOMO ENERGY>
BIOVIA, TYPE=DOUBLE, VERSION=1                                                  
     0.03036056

> <OPERATION STATUS>
BIOVIA, TYPE=STATUS, VERSION=1                                                  
SUCCESS

$$$$
